/*--------------------------------*- C++ -*----------------------------------*\
| =========                 |                                                 |
| \\      /  F ield         | OpenFOAM: The Open Source CFD Toolbox           |
|  \\    /   O peration     | Version:  3.10                                 |
|   \\  /    A nd           | Web:      www.OpenFOAM.org                      |
|    \\/     M anipulation  |                                                 |
\*---------------------------------------------------------------------------*/
FoamFile
{
    version     2.0;
    format      ascii;
    class       dictionary;
    object      blockMeshDict;
}
// * * * * * * * * * * * * * * * * * * * * * * * * * * * * * * * * * * * * * //

convertToMeters 0.001;

vertices
(

    (0.05 -1.8 0.00)  //0
    (0.55 -1.8 0.00)  //1
    (0.55 -1.0 0.00)  //2
    (0.05 -1.0 0.00)  //3
    (0.05 -1.8 0.40)  //4
    (0.55 -1.8 0.40)  //5
    (0.55 -1.0 0.40)  //6
    (0.05 -1.0 0.40)  //7

);
blocks
(
    hex (0 1 2 3 4 5 6 7) (50 80 40) simpleGrading (1 1 1) // # cells 160,000
);

edges
(
);

boundary
(

    lowerWall
    {
        type wall;
        faces
        (
            (3 7 6 2)

        );
    }

    atmosphere
    {
        type patch;
        faces
        (
            (1 5 4 0)
        );
    }
    rightWall
    {
        type patch;
        faces
        (
            (1 2 6 5)
	    
        );
    }
    leftWall
    {
        type patch;
        faces
        (
            (0 4 7 3)
        );
    }
    frontAndBack
    {
        type patch;
        faces
        (
            (0 3 2 1)
	    (5 6 7 4)
        );
    }
);

mergePatchPairs
(


);

// ************************************************************************* //
