/*--------------------------------*- C++ -*----------------------------------*\
  =========                 |
  \\      /  F ield         | OpenFOAM: The Open Source CFD Toolbox
   \\    /   O peration     | Website:  https://openfoam.org
    \\  /    A nd           | Version:  6
     \\/     M anipulation  |
\*---------------------------------------------------------------------------*/
FoamFile
{
    version     2.0;
    format      ascii;
    class       dictionary;
    location    "constant";
    object      PhaseFieldProperties;
}
// * * * * * * * * * * * * * * * * * * * * * * * * * * * * * * * * * * * * * //
V_incident	(0 1 0); //Laser Beam Direction, NORMALISED IN CODE

timeVsLaserPosition
{
  file "$FOAM_CASE/constant/timeVsLaserPosition";
  outOfBounds clamp;
}

timeVsLaserPower
{
  file "$FOAM_CASE/constant/timeVsLaserPower";
  outOfBounds clamp;
}

laserRadius 0.0001225;

//HS_a 0.0001225; // spot size
//HS_bg 0.0;//20
//HS_velocity 0.0;//6.0;
//HS_lg 0.0002;// 5e-5;
//HS_Q 5000.0;//

N_sub_divisions	1;

//For linear path set oscAmpX=oscAmpz=0
//For sine path set oscAmpz=0
//For circular path set amplitude and frequency in both X and Z
//HS_oscAmpX 0.0;
//HS_oscAmpZ 0.0;

//HS_oscFreqX 180;
//HS_oscFreqZ 180;

wavelength	1.070e-6;
e_num_density	5.83e29;

debug no;

Radius_Flavour	2; // Set to 2 for 1/e² power radius or 3 for 5% power radius.

